networks/opendss/CKT_445_03850.dss
! OpenDSS script generated from multiconductor network
Clear

New Circuit.mc_network basekv=12.0 pu=1.000000 angle=0.00 frequency=60.0 phases=3 Mvasc3=143993 Mvasc1=47997.6
~ bus1=-8888882142714.1.2.3

! Line codes
New LineCode.1000_CLP_3PH_12KV_3 nphases=3 units=km Rmatrix=[ 0.019975 | 0 0.019975 | 0 0 0.019975 ] Xmatrix=[ 0.030237 | 0 0.030237 | 0 0 0.030237 ] Cmatrix=[ 0 | 0 0 | 0 0 0 ]
New LineCode.2_CU_3PH_12KV_3 nphases=3 units=km Rmatrix=[ 1e-05 | 0 1e-05 | 0 0 1e-05 ] Xmatrix=[ 1e-05 | 0 1e-05 | 0 0 1e-05 ] Cmatrix=[ 0 | 0 0 | 0 0 0 ]
New LineCode.2_CLP_1PH_12KV_1 nphases=1 units=km Rmatrix=[ 0.115505 ] Xmatrix=[ 0.024346 ] Cmatrix=[ 0 ]
New LineCode.1/0_JCN_3PH_12KV_3 nphases=3 units=km Rmatrix=[ 0.00184 | 0 0.00184 | 0 0 0.00184 ] Xmatrix=[ 0.000562 | 0 0.000562 | 0 0 0.000562 ] Cmatrix=[ 0 | 0 0 | 0 0 0 ]
New LineCode.1/0_JCN_1PH_12KV_1 nphases=1 units=km Rmatrix=[ 0.002346 ] Xmatrix=[ 0.000717 ] Cmatrix=[ 0 ]
New LineCode.1/0_JCN_2PH_12KV_2 nphases=2 units=km Rmatrix=[ 0.009916 | 0 0.009916 ] Xmatrix=[ 0.003031 | 0 0.003031 ] Cmatrix=[ 0 | 0 0 ]
New LineCode.1000_JCN_3PH_12KV_3 nphases=3 units=km Rmatrix=[ 0.038444 | 0 0.038444 | 0 0 0.038444 ] Xmatrix=[ 0.058193 | 0 0.058193 | 0 0 0.058193 ] Cmatrix=[ 0 | 0 0 | 0 0 0 ]
New LineCode.350_CLP_3PH_12KV_3 nphases=3 units=km Rmatrix=[ 0.001015 | 0 0.001015 | 0 0 0.001015 ] Xmatrix=[ 0.000771 | 0 0.000771 | 0 0 0.000771 ] Cmatrix=[ 0 | 0 0 | 0 0 0 ]
New LineCode.1/0_CLP_3PH_12KV_3 nphases=3 units=km Rmatrix=[ 0.002784 | 0 0.002784 | 0 0 0.002784 ] Xmatrix=[ 0.000851 | 0 0.000851 | 0 0 0.000851 ] Cmatrix=[ 0 | 0 0 | 0 0 0 ]
New LineCode.350_JCN_3PH_12KV_3 nphases=3 units=km Rmatrix=[ 0.032055 | 0 0.032055 | 0 0 0.032055 ] Xmatrix=[ 0.024355 | 0 0.024355 | 0 0 0.024355 ] Cmatrix=[ 0 | 0 0 | 0 0 0 ]
New LineCode.750_CLP_3PH_12KV_3 nphases=3 units=km Rmatrix=[ 0.018565 | 0 0.018565 | 0 0 0.018565 ] Xmatrix=[ 0.0228 | 0 0.0228 | 0 0 0.0228 ] Cmatrix=[ 0 | 0 0 | 0 0 0 ]
New LineCode.2_CLP_3PH_12KV_3 nphases=3 units=km Rmatrix=[ 0.055615 | 0 0.055615 | 0 0 0.055615 ] Xmatrix=[ 0.011723 | 0 0.011723 | 0 0 0.011723 ] Cmatrix=[ 0 | 0 0 | 0 0 0 ]
New LineCode.350_AL_3PH_12KV_3 nphases=3 units=km Rmatrix=[ 0.055772 | 0 0.055772 | 0 0 0.055772 ] Xmatrix=[ 0.042375 | 0 0.042375 | 0 0 0.042375 ] Cmatrix=[ 0 | 0 0 | 0 0 0 ]
New LineCode.336_ACSR_3PH_12KV_3 nphases=3 units=km Rmatrix=[ 0.089778 | 0 0.089778 | 0 0 0.089778 ] Xmatrix=[ 0.201046 | 0 0.201046 | 0 0 0.201046 ] Cmatrix=[ 0 | 0 0 | 0 0 0 ]
New LineCode.1/0_CLP_1PH_12KV_1 nphases=1 units=km Rmatrix=[ 0.02348 ] Xmatrix=[ 0.007177 ] Cmatrix=[ 0 ]
New LineCode.1/0_CLP_2PH_12KV_2 nphases=2 units=km Rmatrix=[ 0.007131 | 0 0.007131 ] Xmatrix=[ 0.00218 | 0 0.00218 ] Cmatrix=[ 0 | 0 0 ]
New LineCode.750_CLP_1PH_12KV_1 nphases=1 units=km Rmatrix=[ 0.0005 ] Xmatrix=[ 0.000615 ] Cmatrix=[ 0 ]
New LineCode.2_JCN_1PH_12KV_1 nphases=1 units=km Rmatrix=[ 0.001674 ] Xmatrix=[ 0.000353 ] Cmatrix=[ 0 ]
New LineCode.2_JCN_2PH_12KV_2 nphases=2 units=km Rmatrix=[ 0.072087 | 0 0.072087 ] Xmatrix=[ 0.015195 | 0 0.015195 ] Cmatrix=[ 0 | 0 0 ]
New LineCode.653_ACSR_3PH_653_ACSR_N_12KV_4 nphases=4 units=km Rmatrix=[ 0.009298 | 0 0.009298 | 0 0 0.009298 | 0 0 0 0.009298 ] Xmatrix=[ 0.031614 | 0 0.031614 | 0 0 0.031614 | 0 0 0 0.031614 ] Cmatrix=[ 0 | 0 0 | 0 0 0 | 0 0 0 0 ]
New LineCode.336_ACSR_3PH_336_ACSR_N_12KV_4 nphases=4 units=km Rmatrix=[ 0.00042 | 0 0.00042 | 0 0 0.00042 | 0 0 0 0.00042 ] Xmatrix=[ 0.000837 | 0 0.000837 | 0 0 0.000837 | 0 0 0 0.000837 ] Cmatrix=[ 0 | 0 0 | 0 0 0 | 0 0 0 0 ]
New LineCode.4_CU_3PH_12KV_3 nphases=3 units=km Rmatrix=[ 0.008744 | 0 0.008744 | 0 0 0.008744 ] Xmatrix=[ 0.004766 | 0 0.004766 | 0 0 0.004766 ] Cmatrix=[ 0 | 0 0 | 0 0 0 ]
New LineCode.2/0_CU_3PH_12KV_3 nphases=3 units=km Rmatrix=[ 0.021587 | 0 0.021587 | 0 0 0.021587 ] Xmatrix=[ 0.033294 | 0 0.033294 | 0 0 0.033294 ] Cmatrix=[ 0 | 0 0 | 0 0 0 ]
New LineCode.4_ACSR_3PH_12KV_3 nphases=3 units=km Rmatrix=[ 0.522529 | 0 0.522529 | 0 0 0.522529 ] Xmatrix=[ 0.191738 | 0 0.191738 | 0 0 0.191738 ] Cmatrix=[ 0 | 0 0 | 0 0 0 ]
New LineCode.6_CU_2PH_12KV_2 nphases=2 units=km Rmatrix=[ 0.007158 | 0 0.007158 ] Xmatrix=[ 0.002537 | 0 0.002537 ] Cmatrix=[ 0 | 0 0 ]
New LineCode.1/0_ACSR_3PH_1/0_ACSR_N_12KV_4 nphases=4 units=km Rmatrix=[ 0.002594 | 0 0.002594 | 0 0 0.002594 | 0 0 0 0.002594 ] Xmatrix=[ 0.001875 | 0 0.001875 | 0 0 0.001875 | 0 0 0 0.001875 ] Cmatrix=[ 0 | 0 0 | 0 0 0 | 0 0 0 0 ]
New LineCode.2_CLP_ABC_12_3 nphases=3 units=km Rmatrix=[ 0.071746 | 0 0.071746 | 0 0 0.071746 ] Xmatrix=[ 0.015123 | 0 0.015123 | 0 0 0.015123 ] Cmatrix=[ 0 | 0 0 | 0 0 0 ]

! Lines
New Line.GS6887-3$03850 phases=3 Bus1=-8888882142714.1.2.3 Bus2=170225651.1.2.3 LineCode=1000_CLP_3PH_12KV_3 Length=0.185621 units=km
New Line.1868706E$GS6885-3 phases=3 Bus1=170225755.1.2.3 Bus2=171180979.1.2.3 LineCode=2_CU_3PH_12KV_3 Length=0.237642 units=km
New Line.ND104870021$B5596200-1 phases=1 Bus1=104870021.3 Bus2=104869765.3 LineCode=2_CLP_1PH_12KV_1 Length=0.015462 units=km
New Line.ND104870021$ND104869982 phases=1 Bus1=104870021.3 Bus2=104869982.3 LineCode=2_CLP_1PH_12KV_1 Length=0.006603 units=km
New Line.180735344$J211-3P phases=3 Bus1=180735347.1.2.3 Bus2=164268662.1.2.3 LineCode=1/0_JCN_3PH_12KV_3 Length=0.001521 units=km
New Line.P5645587-1$165271064 phases=1 Bus1=165270871.1 Bus2=165271067.1 LineCode=1/0_JCN_1PH_12KV_1 Length=0.000794 units=km
New Line.246458972$P5614734-1 phases=1 Bus1=246458975.1 Bus2=165689504.1 LineCode=1/0_JCN_1PH_12KV_1 Length=0.003193 units=km
New Line.164531293$ND166185873 phases=2 Bus1=164531295.2.3 Bus2=166185873.2.3 LineCode=1/0_JCN_2PH_12KV_2 Length=0.006806 units=km
New Line.168050116$168050091 phases=3 Bus1=168050118.1.2.3 Bus2=168050093.1.2.3 LineCode=1/0_JCN_3PH_12KV_3 Length=0.105143 units=km
New Line.P5643809-1$169988363 phases=1 Bus1=169988366.1 Bus2=169988121.1 LineCode=1/0_JCN_1PH_12KV_1 Length=0.004362 units=km
New Line.GS6887-2$GS6885-1 phases=3 Bus1=170225643.1.2.3 Bus2=170225739.1.2.3 LineCode=1000_JCN_3PH_12KV_3 Length=0.068292 units=km
New Line.ND170225544$GS6887-1 phases=3 Bus1=170225635.1.2.3 Bus2=170225544.1.2.3 LineCode=1000_JCN_3PH_12KV_3 Length=0.266482 units=km
New Line.GS6680-3$ND170225544 phases=3 Bus1=170225544.1.2.3 Bus2=108039386.1.2.3 LineCode=1000_JCN_3PH_12KV_3 Length=0.041988 units=km
New Line.ND170225544$477461EPH phases=3 Bus1=170225544.1.2.3 Bus2=170225560.1.2.3 LineCode=1000_JCN_3PH_12KV_3 Length=0.372942 units=km
New Line.GS6680-2$GS6679-1 phases=3 Bus1=108039378.1.2.3 Bus2=108039585.1.2.3 LineCode=1000_CLP_3PH_12KV_3 Length=0.443824 units=km
New Line.GS6680-4$GS6597-1 phases=3 Bus1=108039394.1.2.3 Bus2=157302158.1.2.3 LineCode=1000_CLP_3PH_12KV_3 Length=0.281719 units=km
New Line.V5534117$GS6680-1 phases=1 Bus1=108039370.2 Bus2=108039536.2 LineCode=2_CLP_1PH_12KV_1 Length=0.00492 units=km
New Line.GS6680-5$0208061 phases=3 Bus1=108039402.1.2.3 Bus2=169329855.1.2.3 LineCode=1/0_JCN_3PH_12KV_3 Length=0.088932 units=km
New Line.4018985E$PMC7207-2 phases=3 Bus1=41595982.1.2.3 Bus2=41609205.1.2.3 LineCode=1000_CLP_3PH_12KV_3 Length=0.012545 units=km
New Line.GS6679-2$ND165362921 phases=3 Bus1=108039577.1.2.3 Bus2=165362921.1.2.3 LineCode=1000_JCN_3PH_12KV_3 Length=0.35853 units=km
New Line.ND110521431$GS6679-3 phases=3 Bus1=108039593.1.2.3 Bus2=110521431.1.2.3 LineCode=1000_CLP_3PH_12KV_3 Length=0.172615 units=km
New Line.ND164624533$ND165362921 phases=3 Bus1=165362921.1.2.3 Bus2=164624533.1.2.3 LineCode=1000_JCN_3PH_12KV_3 Length=0.004291 units=km
New Line.ND165362921$V5629646 phases=1 Bus1=165362921.3 Bus2=165362915.3 LineCode=2_CLP_1PH_12KV_1 Length=0.002814 units=km
New Line.PMC0992-2$GS6679-4 phases=3 Bus1=108039601.1.2.3 Bus2=108039762.1.2.3 LineCode=350_CLP_3PH_12KV_3 Length=0.241581 units=km
New Line.ND110521431$GS6664-1 phases=3 Bus1=110521431.1.2.3 Bus2=110467419.1.2.3 LineCode=1000_CLP_3PH_12KV_3 Length=0.262191 units=km
New Line.ND110521431$J111A-1P phases=3 Bus1=110521431.1.2.3 Bus2=110521215.1.2.3 LineCode=1/0_CLP_3PH_12KV_3 Length=0.096818 units=km
New Line.ND164624533$ND193192856 phases=3 Bus1=164624533.1.2.3 Bus2=193192856.1.2.3 LineCode=350_JCN_3PH_12KV_3 Length=0.127428 units=km
New Line.ND164624533$GS7240-3 phases=3 Bus1=164624533.1.2.3 Bus2=236675666.1.2.3 LineCode=1000_JCN_3PH_12KV_3 Length=0.310574 units=km
New Line.208E$PME5165-1 phases=3 Bus1=148128136.1.2.3 Bus2=238408270.1.2.3 LineCode=1000_JCN_3PH_12KV_3 Length=0.080039 units=km
New Line.748E$GS4760-4 phases=3 Bus1=41596045.1.2.3 Bus2=164535787.1.2.3 LineCode=750_CLP_3PH_12KV_3 Length=0.131063 units=km
New Line.PME7228-1$ND193192856 phases=3 Bus1=193192856.1.2.3 Bus2=164624587.1.2.3 LineCode=350_JCN_3PH_12KV_3 Length=0.026273 units=km
New Line.P5629672-1$ND193192856 phases=3 Bus1=193192856.1.2.3 Bus2=164624712.1.2.3 LineCode=1/0_JCN_3PH_12KV_3 Length=0.058833 units=km
New Line.P5644219-1$172845877 phases=1 Bus1=174129655.1 Bus2=172845880.1 LineCode=1/0_JCN_1PH_12KV_1 Length=0.00306 units=km
New Line.173587287$P5645839-1 phases=1 Bus1=173587290.3 Bus2=173586964.3 LineCode=1/0_JCN_1PH_12KV_1 Length=0.002134 units=km
New Line.174036386$174036468 phases=1 Bus1=174036470.2 Bus2=174036388.2 LineCode=1/0_JCN_1PH_12KV_1 Length=0.082216 units=km
New Line.P5649559-1$174129759 phases=1 Bus1=174129310.1 Bus2=174129762.1 LineCode=1/0_JCN_1PH_12KV_1 Length=0.002994 units=km
New Line.182319385$P5555002-2 phases=3 Bus1=182319388.1.2.3 Bus2=95358932.1.2.3 LineCode=1/0_CLP_3PH_12KV_3 Length=0.002199 units=km
New Line.ND104869982$B5596199-2 phases=1 Bus1=104869982.3 Bus2=104869638.3 LineCode=2_CLP_1PH_12KV_1 Length=0.131335 units=km
New Line.ND104869982$B5596201-1 phases=1 Bus1=104869982.3 Bus2=104869697.3 LineCode=2_CLP_1PH_12KV_1 Length=0.077664 units=km
New Line.P5629721-2$236186696 phases=1 Bus1=236186699.2 Bus2=164414351.2 LineCode=1/0_JCN_1PH_12KV_1 Length=0.001816 units=km
New Line.164531318$ND166185873 phases=1 Bus1=166185873.2 Bus2=164531320.2 LineCode=1/0_JCN_1PH_12KV_1 Length=0.009914 units=km
New Line.164771950$P5644459-2 phases=1 Bus1=164771953.2 Bus2=164771423.2 LineCode=1/0_JCN_1PH_12KV_1 Length=0.002573 units=km
New Line.164771919$P5644461-1 phases=1 Bus1=164771922.2 Bus2=164771550.2 LineCode=1/0_JCN_1PH_12KV_1 Length=0.002317 units=km
New Line.165690203$P5644914-1 phases=1 Bus1=165690206.3 Bus2=165689805.3 LineCode=1/0_JCN_1PH_12KV_1 Length=0.00315 units=km
New Line.165767451$165767418 phases=1 Bus1=165767391.2 Bus2=165767453.2 LineCode=1/0_JCN_1PH_12KV_1 Length=0.063953 units=km
New Line.164531241$ND166185817 phases=1 Bus1=164531243.1 Bus2=166185817.1 LineCode=1/0_JCN_1PH_12KV_1 Length=0.018612 units=km
New Line.169623596$169623621 phases=1 Bus1=169623598.1 Bus2=169623623.1 LineCode=1/0_JCN_1PH_12KV_1 Length=0.100817 units=km
New Line.P5649795-1$P5649796-1 phases=1 Bus1=170645701.3 Bus2=170645769.3 LineCode=1/0_JCN_1PH_12KV_1 Length=0.039832 units=km
New Line.4237343E$PME5165-4 phases=3 Bus1=238408252.1.2.3 Bus2=41596991.1.2.3 LineCode=1/0_JCN_3PH_12KV_3 Length=0.022463 units=km
New Line.ND166185873$173570031 phases=2 Bus1=166185873.2.3 Bus2=173570033.2.3 LineCode=1/0_JCN_2PH_12KV_2 Length=0.114256 units=km
New Line.176964948$ND176964706 phases=1 Bus1=176964951.3 Bus2=176964706.3 LineCode=1/0_JCN_1PH_12KV_1 Length=0.008433 units=km
New Line.188357982$P5657181-2 phases=1 Bus1=188357985.1 Bus2=179673685.1 LineCode=1/0_JCN_1PH_12KV_1 Length=0.00117 units=km
New Line.180271091$P5643811-2 phases=1 Bus1=180270915.1 Bus2=180271094.1 LineCode=1/0_JCN_1PH_12KV_1 Length=0.000853 units=km
New Line.188357938$P5657182-2 phases=1 Bus1=188357941.3 Bus2=185861528.3 LineCode=1/0_JCN_1PH_12KV_1 Length=0.002258 units=km
New Line.41609708$102703496 phases=1 Bus1=102703498.1 Bus2=41609710.1 LineCode=2_CLP_1PH_12KV_1 Length=0.124431 units=km
New Line.P5554989-B$ND95359040 phases=3 Bus1=151771519.1.2.3 Bus2=95359040.1.2.3 LineCode=2_CLP_3PH_12KV_3 Length=0.009997 units=km
New Line.GS6664-2$J787-1P phases=3 Bus1=110467411.1.2.3 Bus2=110521894.1.2.3 LineCode=1/0_CLP_3PH_12KV_3 Length=0.066686 units=km
New Line.P5607991-2$J111A-2P phases=3 Bus1=110521239.1.2.3 Bus2=110654557.1.2.3 LineCode=1/0_CLP_3PH_12KV_3 Length=0.371322 units=km
New Line.170048211$PME7228-4 phases=1 Bus1=164624569.2 Bus2=170048214.2 LineCode=1/0_JCN_1PH_12KV_1 Length=0.003025 units=km
New Line.GS7240-2$ND236676001 phases=3 Bus1=236675657.1.2.3 Bus2=236676001.1.2.3 LineCode=1/0_JCN_3PH_12KV_3 Length=0.010334 units=km
New Line.PME5165-2$PH487E phases=3 Bus1=238408261.1.2.3 Bus2=240166369.1.2.3 LineCode=1000_JCN_3PH_12KV_3 Length=0.073664 units=km
New Line.134144579$J111A-3P phases=3 Bus1=110521223.1.2.3 Bus2=134144581.1.2.3 LineCode=1/0_CLP_3PH_12KV_3 Length=0.289231 units=km
New Line.PME7228-2$PME7229-1 phases=3 Bus1=164624578.1.2.3 Bus2=164624819.1.2.3 LineCode=1/0_JCN_3PH_12KV_3 Length=0.223607 units=km
New Line.193193719$PME7228-3 phases=3 Bus1=164624560.1.2.3 Bus2=193193722.1.2.3 LineCode=1/0_JCN_3PH_12KV_3 Length=0.002135 units=km
New Line.GS7240-1$ND236675945 phases=3 Bus1=236675648.1.2.3 Bus2=236675945.1.2.3 LineCode=1000_JCN_3PH_12KV_3 Length=0.380028 units=km
New Line.4328752E$GS4760-3 phases=3 Bus1=164535778.1.2.3 Bus2=41598287.1.2.3 LineCode=350_AL_3PH_12KV_3 Length=0.250612 units=km
New Line.GS6664-4$ND110522167 phases=3 Bus1=110467435.1.2.3 Bus2=110522167.1.2.3 LineCode=1000_CLP_3PH_12KV_3 Length=0.216993 units=km
New Line.J647-1P$ND236675945 phases=3 Bus1=236675945.1.2.3 Bus2=165895078.1.2.3 LineCode=1/0_JCN_3PH_12KV_3 Length=0.056096 units=km
New Line.J450-1P$170048211 phases=1 Bus1=170048213.2 Bus2=170047640.2 LineCode=1/0_JCN_1PH_12KV_1 Length=0.147831 units=km
New Line.ND236675945$GS7239-4 phases=3 Bus1=236675945.1.2.3 Bus2=183609076.1.2.3 LineCode=1000_JCN_3PH_12KV_3 Length=0.512041 units=km
New Line.ND164646522$ND166185817 phases=1 Bus1=166185817.1 Bus2=164646522.1 LineCode=1/0_JCN_1PH_12KV_1 Length=0.047027 units=km
New Line.ND166185817$ND164646532 phases=1 Bus1=166185817.1 Bus2=164646532.1 LineCode=1/0_JCN_1PH_12KV_1 Length=0.088106 units=km
New Line.165271064$165271091 phases=1 Bus1=165271066.1 Bus2=165271093.1 LineCode=1/0_JCN_1PH_12KV_1 Length=0.045471 units=km
New Line.168050091$P5644923-2 phases=3 Bus1=168050094.1.2.3 Bus2=166186296.1.2.3 LineCode=1/0_JCN_3PH_12KV_3 Length=0.003211 units=km
New Line.P5644911-2$167232917 phases=1 Bus1=165767119.2 Bus2=167232920.2 LineCode=1/0_JCN_1PH_12KV_1 Length=0.002349 units=km
New Line.172845877$172845904 phases=1 Bus1=172845879.1 Bus2=172845906.1 LineCode=1/0_JCN_1PH_12KV_1 Length=0.076641 units=km
New Line.J000-3P$173586776 phases=1 Bus1=186588135.1 Bus2=173586778.1 LineCode=2_CLP_1PH_12KV_1 Length=0.138232 units=km
New Line.174036386$P5653920-1 phases=1 Bus1=174036389.2 Bus2=174036184.2 LineCode=1/0_JCN_1PH_12KV_1 Length=0.002588 units=km
New Line.174129727$174129759 phases=1 Bus1=174129761.1 Bus2=174129729.1 LineCode=1/0_JCN_1PH_12KV_1 Length=0.08851 units=km
New Line.P5653925-2$176717908 phases=1 Bus1=176717450.3 Bus2=176717911.3 LineCode=1/0_JCN_1PH_12KV_1 Length=0.000982 units=km
New Line.ND176964706$176964923 phases=1 Bus1=176964706.3 Bus2=176964926.3 LineCode=1/0_JCN_1PH_12KV_1 Length=0.008022 units=km
New Line.ND176964706$176964973 phases=1 Bus1=176964706.3 Bus2=176964976.3 LineCode=1/0_JCN_1PH_12KV_1 Length=0.009011 units=km
New Line.P5657183-2$185861998 phases=1 Bus1=185861623.3 Bus2=185862001.3 LineCode=1/0_JCN_1PH_12KV_1 Length=0.003099 units=km
New Line.ND95359040$ND95358805 phases=3 Bus1=95359040.1.2.3 Bus2=95358805.1.2.3 LineCode=1/0_CLP_3PH_12KV_3 Length=0.072442 units=km
New Line.ND95359040$ND95359103 phases=3 Bus1=95359040.1.2.3 Bus2=95359103.1.2.3 LineCode=1/0_CLP_3PH_12KV_3 Length=0.147122 units=km
New Line.ND95359103$ND100141927 phases=3 Bus1=95359103.1.2.3 Bus2=100141927.1.2.3 LineCode=1/0_CLP_3PH_12KV_3 Length=0.004897 units=km
New Line.164531318$P5633919-2 phases=1 Bus1=164531321.2 Bus2=164530976.2 LineCode=1/0_JCN_1PH_12KV_1 Length=0.002347 units=km
New Line.ND164646532$164531204 phases=1 Bus1=164646532.1 Bus2=164531206.1 LineCode=1/0_JCN_1PH_12KV_1 Length=0.011954 units=km
New Line.164646287$ND164646522 phases=1 Bus1=164646522.1 Bus2=164646289.1 LineCode=1/0_JCN_1PH_12KV_1 Length=0.095094 units=km
New Line.ND164646522$164646435 phases=1 Bus1=164646522.1 Bus2=164646437.1 LineCode=1/0_JCN_1PH_12KV_1 Length=0.12782 units=km
New Line.ND110522167$ND110522240 phases=3 Bus1=110522167.1.2.3 Bus2=110522240.1.2.3 LineCode=1000_CLP_3PH_12KV_3 Length=0.235576 units=km
New Line.134144579$P5610947-1 phases=3 Bus1=134144582.1.2.3 Bus2=153902043.1.2.3 LineCode=1/0_CLP_3PH_12KV_3 Length=0.00512 units=km
New Line.193193744$193193719 phases=3 Bus1=193193721.1.2.3 Bus2=193193746.1.2.3 LineCode=1/0_JCN_3PH_12KV_3 Length=0.121903 units=km
New Line.J788-1P$ND110522240 phases=3 Bus1=110522240.1.2.3 Bus2=110522043.1.2.3 LineCode=1/0_CLP_3PH_12KV_3 Length=0.10163 units=km
New Line.ND110522240$ND110522380 phases=3 Bus1=110522240.1.2.3 Bus2=110522380.1.2.3 LineCode=1000_CLP_3PH_12KV_3 Length=0.254861 units=km
New Line.PME7229-4$ND170422956 phases=3 Bus1=164624801.1.2.3 Bus2=170422956.1.2.3 LineCode=1/0_JCN_3PH_12KV_3 Length=0.145432 units=km
New Line.PME7921-1$4238143E phases=3 Bus1=41596961.1.2.3 Bus2=196648076.1.2.3 LineCode=2_CLP_3PH_12KV_3 Length=0.049785 units=km
New Line.ND238408647$578E phases=3 Bus1=238408647.1.2.3 Bus2=238408618.1.2.3 LineCode=336_ACSR_3PH_12KV_3 Length=0.007736 units=km
New Line.ND110522380$GS6665-1 phases=3 Bus1=110522380.1.2.3 Bus2=110521595.1.2.3 LineCode=1000_CLP_3PH_12KV_3 Length=0.363971 units=km
New Line.ND110522380$J789-1P phases=3 Bus1=110522380.1.2.3 Bus2=110522256.1.2.3 LineCode=1/0_CLP_3PH_12KV_3 Length=0.115705 units=km
New Line.J879-1P$193193744 phases=3 Bus1=193193747.1.2.3 Bus2=193192900.1.2.3 LineCode=1/0_JCN_3PH_12KV_3 Length=0.001099 units=km
New Line.199778543$PME7229-2 phases=3 Bus1=164624810.1.2.3 Bus2=199778545.1.2.3 LineCode=1/0_JCN_3PH_12KV_3 Length=0.102611 units=km
New Line.201697768$ND170422956 phases=3 Bus1=170422956.1.2.3 Bus2=201697770.1.2.3 LineCode=1/0_JCN_3PH_12KV_3 Length=0.252781 units=km
New Line.ND170422956$216979534 phases=3 Bus1=170422956.1.2.3 Bus2=216979536.1.2.3 LineCode=1/0_JCN_3PH_12KV_3 Length=0.112898 units=km
New Line.J647-2P$PME7226-2 phases=3 Bus1=165895102.1.2.3 Bus2=164414204.1.2.3 LineCode=1/0_JCN_3PH_12KV_3 Length=0.298539 units=km
New Line.170048261$J450-2P phases=1 Bus1=170047656.2 Bus2=170048264.2 LineCode=1/0_JCN_1PH_12KV_1 Length=0.001144 units=km
New Line.GS7239-3$ND174128906 phases=3 Bus1=183609068.1.2.3 Bus2=174128906.1.2.3 LineCode=1/0_JCN_3PH_12KV_3 Length=0.335328 units=km
New Line.206897873$PME7921-1 phases=3 Bus1=196648077.1.2.3 Bus2=206897876.1.2.3 LineCode=2_CLP_3PH_12KV_3 Length=0.003718 units=km
New Line.578E$GS8684-1 phases=3 Bus1=238408619.1.2.3 Bus2=238408468.1.2.3 LineCode=1000_JCN_3PH_12KV_3 Length=0.097868 units=km
New Line.ND174128906$PME7224-1 phases=3 Bus1=174128906.1.2.3 Bus2=164267862.1.2.3 LineCode=1/0_JCN_3PH_12KV_3 Length=0.013727 units=km
New Line.P5551886$ND174128906 phases=1 Bus1=174128906.3 Bus2=164268162.3 LineCode=1/0_JCN_1PH_12KV_1 Length=0.002465 units=km
New Line.P5629675-1$199778543 phases=3 Bus1=199778546.1.2.3 Bus2=164624951.1.2.3 LineCode=1/0_JCN_3PH_12KV_3 Length=0.005766 units=km
New Line.PME7227-1$GS7239-2 phases=3 Bus1=183609052.1.2.3 Bus2=165894921.1.2.3 LineCode=1/0_JCN_3PH_12KV_3 Length=0.166603 units=km
New Line.J647-3P$LBFC7312-1 phases=3 Bus1=165895086.1.2.3 Bus2=166185731.1.2.3 LineCode=1/0_JCN_3PH_12KV_3 Length=0.091422 units=km
New Line.J450-3P$170048288 phases=1 Bus1=170047648.2 Bus2=170048291.2 LineCode=1/0_JCN_1PH_12KV_1 Length=0.001042 units=km
New Line.216979534$P5639742-1 phases=3 Bus1=216979537.1.2.3 Bus2=170422700.1.2.3 LineCode=1/0_JCN_3PH_12KV_3 Length=0.002497 units=km
New Line.P5639744-A$201697768 phases=3 Bus1=201697771.1.2.3 Bus2=170422788.1.2.3 LineCode=1/0_JCN_3PH_12KV_3 Length=0.001383 units=km
New Line.165767451$P5644912-2 phases=1 Bus1=165767454.2 Bus2=165767187.2 LineCode=1/0_JCN_1PH_12KV_1 Length=0.005879 units=km
New Line.173570031$P5644921-1 phases=2 Bus1=173570034.2.3 Bus2=166185887.2.3 LineCode=1/0_JCN_2PH_12KV_2 Length=0.001454 units=km
New Line.169623621$P5643791-2 phases=1 Bus1=169623624.1 Bus2=169623188.1 LineCode=1/0_JCN_1PH_12KV_1 Length=0.002086 units=km
New Line.P5643809-2$169988390 phases=1 Bus1=169988130.1 Bus2=169988393.1 LineCode=1/0_JCN_1PH_12KV_1 Length=0.003382 units=km
New Line.173587312$P5645839-2 phases=1 Bus1=173586973.3 Bus2=173587315.3 LineCode=1/0_JCN_1PH_12KV_1 Length=0.002722 units=km
New Line.180271116$180271091 phases=1 Bus1=180271093.1 Bus2=180271118.1 LineCode=1/0_JCN_1PH_12KV_1 Length=0.130146 units=km
New Line.J000-2P$P5400189-1 phases=1 Bus1=186588151.1 Bus2=186588004.1 LineCode=1/0_JCN_1PH_12KV_1 Length=0.159399 units=km
New Line.ND95358805$190416355 phases=1 Bus1=95358805.2 Bus2=190416357.2 LineCode=1/0_CLP_1PH_12KV_1 Length=0.035944 units=km
New Line.J576-2P$190998319 phases=1 Bus1=182330958.1 Bus2=190998322.1 LineCode=1/0_JCN_1PH_12KV_1 Length=0.003438 units=km
New Line.193193602$J883-3P phases=3 Bus1=193193018.1.2.3 Bus2=193193605.1.2.3 LineCode=1/0_JCN_3PH_12KV_3 Length=0.002479 units=km
New Line.P5487635-1$41609708 phases=1 Bus1=41609711.1 Bus2=41609734.1 LineCode=2_CLP_1PH_12KV_1 Length=0.003041 units=km
New Line.ND95358805$P5554994-1 phases=3 Bus1=95358805.1.2.3 Bus2=95358750.1.2.3 LineCode=1/0_CLP_3PH_12KV_3 Length=0.074431 units=km
New Line.ND95359103$P5554991-1 phases=3 Bus1=95359103.1.2.3 Bus2=95359059.1.2.3 LineCode=1/0_CLP_3PH_12KV_3 Length=0.087745 units=km
New Line.ND100141927$100141812 phases=3 Bus1=100141927.1.2.3 Bus2=100141814.1.2.3 LineCode=1/0_CLP_3PH_12KV_3 Length=0.073415 units=km
New Line.B5596201-2$B5596202-1 phases=1 Bus1=104869706.3 Bus2=104869901.3 LineCode=2_CLP_1PH_12KV_1 Length=0.081412 units=km
New Line.P5644461-2$164771894 phases=1 Bus1=164771559.2 Bus2=164771897.2 LineCode=1/0_JCN_1PH_12KV_1 Length=0.001753 units=km
New Line.P5644459-1$164771977 phases=1 Bus1=164771414.2 Bus2=164771980.2 LineCode=1/0_JCN_1PH_12KV_1 Length=0.001939 units=km
New Line.165271091$P5645588-2 phases=1 Bus1=165271094.1 Bus2=165270948.1 LineCode=1/0_JCN_1PH_12KV_1 Length=0.002143 units=km
New Line.165690232$P5644914-2 phases=1 Bus1=165689814.3 Bus2=165690235.3 LineCode=1/0_JCN_1PH_12KV_1 Length=0.003086 units=km
New Line.167232917$167232958 phases=1 Bus1=167232919.2 Bus2=167232960.2 LineCode=1/0_JCN_1PH_12KV_1 Length=0.0297 units=km
New Line.172845904$P5649566-2 phases=1 Bus1=172845907.1 Bus2=172845659.1 LineCode=1/0_JCN_1PH_12KV_1 Length=0.001684 units=km
New Line.J000-1P$173586829 phases=1 Bus1=186588127.1 Bus2=173586831.1 LineCode=2_CLP_1PH_12KV_1 Length=0.056265 units=km
New Line.174129727$P5649560-2 phases=1 Bus1=174129730.1 Bus2=174129387.1 LineCode=1/0_JCN_1PH_12KV_1 Length=0.00414 units=km
New Line.176717908$176717883 phases=1 Bus1=176717910.3 Bus2=176717885.3 LineCode=1/0_JCN_1PH_12KV_1 Length=0.061095 units=km
New Line.176964973$176964871 phases=1 Bus1=176964975.3 Bus2=176964873.3 LineCode=1/0_JCN_1PH_12KV_1 Length=0.026423 units=km
New Line.176964923$176964898 phases=1 Bus1=176964925.3 Bus2=176964900.3 LineCode=1/0_JCN_1PH_12KV_1 Length=0.10614 units=km
New Line.J211-2P$180735394 phases=1 Bus1=164268670.1 Bus2=180735397.1 LineCode=1/0_JCN_1PH_12KV_1 Length=0.001759 units=km
New Line.J576-3P$182331513 phases=1 Bus1=182330950.2 Bus2=182331516.2 LineCode=1/0_JCN_1PH_12KV_1 Length=0.002228 units=km
New Line.185861998$185861973 phases=1 Bus1=185862000.3 Bus2=185861975.3 LineCode=1/0_JCN_1PH_12KV_1 Length=0.111703 units=km
New Line.173586776$P5400187-2 phases=1 Bus1=173586779.1 Bus2=41610275.1 LineCode=2_CLP_1PH_12KV_1 Length=0.003319 units=km
New Line.ND100141927$P5554992-1 phases=3 Bus1=100141927.1.2.3 Bus2=95358996.1.2.3 LineCode=1/0_CLP_3PH_12KV_3 Length=0.022101 units=km
New Line.164531204$P5629241-1 phases=1 Bus1=164531207.1 Bus2=164530857.1 LineCode=1/0_JCN_1PH_12KV_1 Length=0.002272 units=km
New Line.164646287$P5644917-2 phases=1 Bus1=164646290.1 Bus2=164646159.1 LineCode=1/0_CLP_1PH_12KV_1 Length=0.005074 units=km
New Line.P5644918-1$164646435 phases=1 Bus1=164646438.1 Bus2=164646346.1 LineCode=1/0_CLP_1PH_12KV_1 Length=0.00688 units=km
New Line.ND165894668$GS7239-1 phases=3 Bus1=183609060.1.2.3 Bus2=165894668.1.2.3 LineCode=1000_JCN_3PH_12KV_3 Length=0.453501 units=km
New Line.170048261$170048342 phases=1 Bus1=170048263.2 Bus2=170048344.2 LineCode=1/0_JCN_1PH_12KV_1 Length=0.068185 units=km
New Line.J647-4P$V5629647 phases=1 Bus1=165895094.2 Bus2=180842435.2 LineCode=1/0_JCN_1PH_12KV_1 Length=0.001041 units=km
New Line.P5644923-1$168050064 phases=3 Bus1=166186287.1.2.3 Bus2=168050067.1.2.3 LineCode=1/0_JCN_3PH_12KV_3 Length=0.003214 units=km
New Line.169988390$169988417 phases=1 Bus1=169988392.1 Bus2=169988419.1 LineCode=1/0_JCN_1PH_12KV_1 Length=0.07712 units=km
New Line.173587337$173587312 phases=1 Bus1=173587314.3 Bus2=173587339.3 LineCode=1/0_JCN_1PH_12KV_1 Length=0.086911 units=km
New Line.P5643812-2$180271116 phases=1 Bus1=180271119.1 Bus2=180270988.1 LineCode=1/0_JCN_1PH_12KV_1 Length=0.003065 units=km
New Line.J211-1P$180735431 phases=1 Bus1=164268654.2 Bus2=180735434.2 LineCode=1/0_JCN_1PH_12KV_1 Length=0.001604 units=km
New Line.190998319$190998346 phases=1 Bus1=190998321.1 Bus2=190998348.1 LineCode=1/0_JCN_1PH_12KV_1 Length=0.138836 units=km
New Line.193193549$193193602 phases=3 Bus1=193193604.1.2.3 Bus2=193193551.1.2.3 LineCode=1/0_JCN_3PH_12KV_3 Length=0.179509 units=km
New Line.190416355$P5555003-2 phases=1 Bus1=190416358.2 Bus2=95358829.2 LineCode=1/0_CLP_1PH_12KV_1 Length=0.003109 units=km
New Line.100141812$P5558239-A phases=3 Bus1=100141815.1.2.3 Bus2=151771603.1.2.3 LineCode=2_CLP_3PH_12KV_3 Length=0.002351 units=km
New Line.164771894$164771869 phases=1 Bus1=164771896.2 Bus2=164771871.2 LineCode=1/0_JCN_1PH_12KV_1 Length=0.026739 units=km
New Line.164771977$164772002 phases=1 Bus1=164771979.2 Bus2=164772004.2 LineCode=1/0_JCN_1PH_12KV_1 Length=0.01155 units=km
New Line.165690232$165690261 phases=1 Bus1=165690234.3 Bus2=165690263.3 LineCode=1/0_JCN_1PH_12KV_1 Length=0.103342 units=km
New Line.P5639509-1$167232958 phases=1 Bus1=167232961.2 Bus2=167232763.2 LineCode=1/0_JCN_1PH_12KV_1 Length=0.004538 units=km
New Line.P5643791-1$169623646 phases=1 Bus1=169623179.1 Bus2=169623649.1 LineCode=1/0_JCN_1PH_12KV_1 Length=0.002852 units=km
New Line.P5644921-2$173570065 phases=2 Bus1=166185896.2.3 Bus2=173570068.2.3 LineCode=1/0_JCN_2PH_12KV_2 Length=0.002829 units=km
New Line.781E$41611203 phases=2 Bus1=41598022.1.2 Bus2=41611205.1.2 LineCode=1/0_CLP_2PH_12KV_2 Length=0.082837 units=km
New Line.ND165894668$J368-1P phases=3 Bus1=165894668.1.2.3 Bus2=104869307.1.2.3 LineCode=750_CLP_3PH_12KV_3 Length=0.016122 units=km
New Line.GS6665-2$J790-1P phases=3 Bus1=110521603.1.2.3 Bus2=110522433.1.2.3 LineCode=1/0_CLP_3PH_12KV_3 Length=0.088969 units=km
New Line.J788-3P$P5610977-1 phases=3 Bus1=110522051.1.2.3 Bus2=153902096.1.2.3 LineCode=1/0_CLP_3PH_12KV_3 Length=0.230569 units=km
New Line.LBFC7312-1$169623516 phases=3 Bus1=166185732.1.2.3 Bus2=169623518.1.2.3 LineCode=1/0_JCN_3PH_12KV_3 Length=0.007371 units=km
New Line.170048288$170048315 phases=1 Bus1=170048290.2 Bus2=170048317.2 LineCode=1/0_JCN_1PH_12KV_1 Length=0.025275 units=km
New Line.J879-2P$193193769 phases=3 Bus1=193192916.1.2.3 Bus2=193193772.1.2.3 LineCode=1/0_JCN_3PH_12KV_3 Length=0.001167 units=km
New Line.ND205093167$ND165894668 phases=3 Bus1=165894668.1.2.3 Bus2=205093167.1.2.3 LineCode=750_CLP_3PH_12KV_3 Length=0.444569 units=km
New Line.222447491$PME7226-3 phases=3 Bus1=164414186.1.2.3 Bus2=222447494.1.2.3 LineCode=1/0_JCN_3PH_12KV_3 Length=0.00262 units=km
New Line.ND205093167$RCS6322-4 phases=3 Bus1=205093167.1.2.3 Bus2=102703628.1.2.3 LineCode=750_CLP_3PH_12KV_3 Length=0.055731 units=km
New Line.J740-3P$PME7224-4 phases=3 Bus1=164267844.1.2.3 Bus2=164268034.1.2.3 LineCode=1/0_JCN_3PH_12KV_3 Length=0.190641 units=km
New Line.165767300$PME7227-4 phases=2 Bus1=165894903.1.2 Bus2=165767303.1.2 LineCode=1/0_JCN_2PH_12KV_2 Length=0.002216 units=km
New Line.P5645452-2$170048342 phases=1 Bus1=170048345.2 Bus2=170047828.2 LineCode=1/0_JCN_1PH_12KV_1 Length=0.001422 units=km
New Line.193193801$J879-3P phases=3 Bus1=193192908.1.2.3 Bus2=193193804.1.2.3 LineCode=1/0_JCN_3PH_12KV_3 Length=0.001237 units=km
New Line.P5639744-B$201697795 phases=3 Bus1=170422797.1.2.3 Bus2=201697798.1.2.3 LineCode=1/0_JCN_3PH_12KV_3 Length=0.119315 units=km
New Line.ND205093167$V5570367T1 phases=3 Bus1=205093167.1.2.3 Bus2=205093181.1.2.3 LineCode=750_CLP_3PH_12KV_3 Length=0.005391 units=km
New Line.PME7226-4$222447518 phases=2 Bus1=164414195.2.3 Bus2=222447521.2.3 LineCode=1/0_JCN_2PH_12KV_2 Length=0.001513 units=km
New Line.41611203$ND41613013 phases=2 Bus1=41611206.1.2 Bus2=41613013.1.2 LineCode=1/0_CLP_2PH_12KV_2 Length=0.010154 units=km
New Line.GS0956-2$GS6665-3 phases=3 Bus1=110521611.1.2.3 Bus2=43656887.1.2.3 LineCode=1000_CLP_3PH_12KV_3 Length=0.095081 units=km
New Line.102703369$ND41613013 phases=1 Bus1=41613013.2 Bus2=102703371.2 LineCode=2_CLP_1PH_12KV_1 Length=0.09524 units=km
New Line.PME7224-2$J089-2P phases=3 Bus1=164267853.1.2.3 Bus2=164268264.1.2.3 LineCode=1/0_JCN_3PH_12KV_3 Length=0.211991 units=km
New Line.164531343$PME7227-3 phases=3 Bus1=165894894.1.2.3 Bus2=164531346.1.2.3 LineCode=1/0_JCN_3PH_12KV_3 Length=0.001931 units=km
New Line.165689577$222447491 phases=3 Bus1=222447493.1.2.3 Bus2=165689579.1.2.3 LineCode=1/0_JCN_3PH_12KV_3 Length=0.092588 units=km
New Line.166882631$PME7227-2 phases=3 Bus1=165894912.1.2.3 Bus2=166882633.1.2.3 LineCode=1/0_JCN_3PH_12KV_3 Length=0.109959 units=km
New Line.169623516$P5645445-1 phases=3 Bus1=169623519.1.2.3 Bus2=169623329.1.2.3 LineCode=1/0_JCN_3PH_12KV_3 Length=0.001308 units=km
New Line.170048315$P5645451-2 phases=1 Bus1=170048318.2 Bus2=170047746.2 LineCode=1/0_JCN_1PH_12KV_1 Length=0.001997 units=km
New Line.PME7386-3$GS8684-3 phases=3 Bus1=238408486.1.2.3 Bus2=173710507.1.2.3 LineCode=1000_JCN_3PH_12KV_3 Length=0.107291 units=km
New Line.PME7224-3$ND174130000 phases=1 Bus1=164267835.3 Bus2=174130000.3 LineCode=1/0_JCN_1PH_12KV_1 Length=0.006731 units=km
New Line.651E$GS4570-3 phases=3 Bus1=41596141.1.2.3 Bus2=185501494.1.2.3 LineCode=750_CLP_3PH_12KV_3 Length=0.116959 units=km
New Line.193193684$193193769 phases=3 Bus1=193193771.1.2.3 Bus2=193193686.1.2.3 LineCode=1/0_JCN_3PH_12KV_3 Length=0.084267 units=km
New Line.ND41613013$41610038 phases=1 Bus1=41613013.1 Bus2=41610040.1 LineCode=1/0_CLP_1PH_12KV_1 Length=0.049796 units=km
...

! Switches
New Line.5659127:P5659127-1 phases=1 Bus1=190997914.1 Bus2=-777777190997914.1 switch=y r1=0.001 x1=0.001 r0=0.001 x0=0.001 Length=0.001 units=km
New Line.5653922:P5653922-2 phases=1 Bus1=176717276.2 Bus2=-777777176717276.2 switch=y r1=0.001 x1=0.001 r0=0.001 x0=0.001 Length=0.001 units=km
New Line.5487631:P5487631-1 phases=1 Bus1=41609831.1 Bus2=-77777741609831.1 switch=y r1=0.001 x1=0.001 r0=0.001 x0=0.001 Length=0.001 units=km
New Line.5653923:P5653923-1 phases=1 Bus1=176717344.2 Bus2=-777777176717344.2 switch=y r1=0.001 x1=0.001 r0=0.001 x0=0.001 Length=0.001 units=km
New Line.5632750:P5632750-2 phases=1 Bus1=173587033.3 Bus2=-777777173587033.3 switch=y r1=0.001 x1=0.001 r0=0.001 x0=0.001 Length=0.001 units=km
New Line.5643794:P5643794-2 phases=1 Bus1=169622976.2 Bus2=-777777169622976.2 switch=y r1=0.001 x1=0.001 r0=0.001 x0=0.001 Length=0.001 units=km
New Line.5487633:P5487633-1 phases=1 Bus1=41609427.1 Bus2=-77777741609427.1 switch=y r1=0.001 x1=0.001 r0=0.001 x0=0.001 Length=0.001 units=km
New Line.5620587:P5620587-1 phases=1 Bus1=174128926.3 Bus2=-777777174128926.3 switch=y r1=0.001 x1=0.001 r0=0.001 x0=0.001 Length=0.001 units=km
New Line.5644916:P5644916-2 phases=1 Bus1=165689942.3 Bus2=-777777165689942.3 switch=y r1=0.001 x1=0.001 r0=0.001 x0=0.001 Length=0.001 units=km
New Line.5644463:P5644463-2 phases=1 Bus1=164771687.2 Bus2=-777777164771687.2 switch=y r1=0.001 x1=0.001 r0=0.001 x0=0.001 Length=0.001 units=km
New Line.5700396:P5700396-1 phases=1 Bus1=190997982.1 Bus2=-777777190997982.1 switch=y r1=0.001 x1=0.001 r0=0.001 x0=0.001 Length=0.001 units=km
New Line.5643793:P5643793-2 phases=1 Bus1=169623248.1 Bus2=-777777169623248.1 switch=y r1=0.001 x1=0.001 r0=0.001 x0=0.001 Length=0.001 units=km
New Line.5657082:P5657082-2 phases=1 Bus1=182331125.2 Bus2=-777777182331125.2 switch=y r1=0.001 x1=0.001 r0=0.001 x0=0.001 Length=0.001 units=km
New Line.5653931:P5653931-1 phases=1 Bus1=180842497.3 Bus2=-777777180842497.3 switch=y r1=0.001 x1=0.001 r0=0.001 x0=0.001 Length=0.001 units=km
New Line.5649568:P5649568-1 phases=1 Bus1=172845811.1 Bus2=-777777172845811.1 switch=y r1=0.001 x1=0.001 r0=0.001 x0=0.001 Length=0.001 units=km
New Line.5649791:P5649791-2 phases=1 Bus1=173569907.1 Bus2=-777777173569907.1 switch=y r1=0.001 x1=0.001 r0=0.001 x0=0.001 Length=0.001 units=km
New Line.5649794:P5649794-1 phases=1 Bus1=172756467.1 Bus2=-777777172756467.1 switch=y r1=0.001 x1=0.001 r0=0.001 x0=0.001 Length=0.001 units=km
New Line.5639511:P5639511-2 phases=1 Bus1=167232628.2 Bus2=-777777167232628.2 switch=y r1=0.001 x1=0.001 r0=0.001 x0=0.001 Length=0.001 units=km
New Line.5657186:P5657186-2 phases=1 Bus1=185213430.3 Bus2=-777777185213430.3 switch=y r1=0.001 x1=0.001 r0=0.001 x0=0.001 Length=0.001 units=km
New Line.5644920:P5644920-2 phases=1 Bus1=164646219.1 Bus2=-777777164646219.1 switch=y r1=0.001 x1=0.001 r0=0.001 x0=0.001 Length=0.001 units=km
New Line.5656334:P5656334-1 phases=1 Bus1=182329648.1 Bus2=-777777182329648.1 switch=y r1=0.001 x1=0.001 r0=0.001 x0=0.001 Length=0.001 units=km
New Line.5639999:P5639999-2 phases=1 Bus1=182330486.2 Bus2=-777777182330486.2 switch=y r1=0.001 x1=0.001 r0=0.001 x0=0.001 Length=0.001 units=km
New Line.5640003:P5640003-1 phases=1 Bus1=182329848.1 Bus2=-777777182329848.1 switch=y r1=0.001 x1=0.001 r0=0.001 x0=0.001 Length=0.001 units=km
New Line.5653929:P5653929-2 phases=1 Bus1=176717578.3 Bus2=-777777176717578.3 switch=y r1=0.001 x1=0.001 r0=0.001 x0=0.001 Length=0.001 units=km
New Line.5657081:P5657081-2 phases=1 Bus1=182331329.2 Bus2=-777777182331329.2 switch=y r1=0.001 x1=0.001 r0=0.001 x0=0.001 Length=0.001 units=km
New Line.5657080:P5657080-1 phases=1 Bus1=182331057.2 Bus2=-777777182331057.2 switch=y r1=0.001 x1=0.001 r0=0.001 x0=0.001 Length=0.001 units=km
New Line.5700399:P5700399-2 phases=1 Bus1=190998186.1 Bus2=-777777190998186.1 switch=y r1=0.001 x1=0.001 r0=0.001 x0=0.001 Length=0.001 units=km
New Line.5640002:P5640002-2 phases=1 Bus1=182330335.2 Bus2=-777777182330335.2 switch=y r1=0.001 x1=0.001 r0=0.001 x0=0.001 Length=0.001 units=km
New Line.102703496 phases=1 Bus1=102703499.1 Bus2=102703498.1 switch=y r1=0.001 x1=0.001 r0=0.001 x0=0.001 Length=0.001 units=km
New Line.164531241 phases=1 Bus1=164531244.1 Bus2=164531243.1 switch=y r1=0.001 x1=0.001 r0=0.001 x0=0.001 Length=0.001 units=km
New Line.164771919 phases=1 Bus1=164771921.2 Bus2=164771922.2 switch=y r1=0.001 x1=0.001 r0=0.001 x0=0.001 Length=0.001 units=km
New Line.164771950 phases=1 Bus1=164771952.2 Bus2=164771953.2 switch=y r1=0.001 x1=0.001 r0=0.001 x0=0.001 Length=0.001 units=km
New Line.165690203 phases=1 Bus1=165690205.3 Bus2=165690206.3 switch=y r1=0.001 x1=0.001 r0=0.001 x0=0.001 Length=0.001 units=km
New Line.165767418 phases=1 Bus1=165767392.2 Bus2=165767391.2 switch=y r1=0.001 x1=0.001 r0=0.001 x0=0.001 Length=0.001 units=km
New Line.169623596 phases=1 Bus1=169623599.1 Bus2=169623598.1 switch=y r1=0.001 x1=0.001 r0=0.001 x0=0.001 Length=0.001 units=km
New Line.5513615:GS6887-3 phases=3 Bus1=170225651.1.2.3 Bus2=170225628.1.2.3 switch=y r1=0.001 x1=0.001 r0=0.001 x0=0.001 Length=0.001 units=km
New Line.5513615:GS6887-2 phases=3 Bus1=170225622.1.2.3 Bus2=170225643.1.2.3 switch=y r1=0.001 x1=0.001 r0=0.001 x0=0.001 Length=0.001 units=km
New Line.5513615:GS6887-1 phases=3 Bus1=170225621.1.2.3 Bus2=170225635.1.2.3 switch=y r1=0.001 x1=0.001 r0=0.001 x0=0.001 Length=0.001 units=km
New Line.5513619:GS6885-1 phases=3 Bus1=170225739.1.2.3 Bus2=170225725.1.2.3 switch=y r1=0.001 x1=0.001 r0=0.001 x0=0.001 Length=0.001 units=km
New Line.5513619:GS6885-3 phases=3 Bus1=170225732.1.2.3 Bus2=170225755.1.2.3 switch=y r1=0.001 x1=0.001 r0=0.001 x0=0.001 Length=0.001 units=km
New Line.5534111:GS6679-1 phases=3 Bus1=108039585.1.2.3 Bus2=108039557.1.2.3 switch=y r1=0.001 x1=0.001 r0=0.001 x0=0.001 Length=0.001 units=km
New Line.4774464E:PS6828 phases=3 Bus1=41610974.1.2.3 Bus2=41610973.1.2.3 switch=y r1=0.001 x1=0.001 r0=0.001 x0=0.001 Length=0.001 units=km
New Line.5534111:GS6679-2 phases=3 Bus1=108039558.1.2.3 Bus2=108039577.1.2.3 switch=y r1=0.001 x1=0.001 r0=0.001 x0=0.001 Length=0.001 units=km
New Line.1653394E:PS0801 phases=3 Bus1=41610488.1.2.3 Bus2=41610489.1.2.3 switch=y r1=0.001 x1=0.001 r0=0.001 x0=0.001 Length=0.001 units=km
New Line.5534111:GS6679-3 phases=3 Bus1=108039564.1.2.3 Bus2=108039593.1.2.3 switch=y r1=0.001 x1=0.001 r0=0.001 x0=0.001 Length=0.001 units=km
New Line.5457207:PMC7207-2 phases=3 Bus1=41609205.1.2.3 Bus2=41609188.1.2.3 switch=y r1=0.001 x1=0.001 r0=0.001 x0=0.001 Length=0.001 units=km
New Line.5534111:GS6679-4 phases=3 Bus1=108039570.1.2.3 Bus2=108039601.1.2.3 switch=y r1=0.001 x1=0.001 r0=0.001 x0=0.001 Length=0.001 units=km
New Line.5610992:PMC0992-2 phases=3 Bus1=108039762.1.2.3 Bus2=108039745.1.2.3 switch=y r1=0.001 x1=0.001 r0=0.001 x0=0.001 Length=0.001 units=km
New Line.5594787:GS6664-1 phases=3 Bus1=110467419.1.2.3 Bus2=110467391.1.2.3 switch=y r1=0.001 x1=0.001 r0=0.001 x0=0.001 Length=0.001 units=km
New Line.5534111:J111A-1 phases=3 Bus1=110521215.1.2.3 Bus2=110521216.1.2.3 switch=y r1=0.001 x1=0.001 r0=0.001 x0=0.001 Length=0.001 units=km
New Line.5629647:GS7240-3 phases=3 Bus1=236675666.1.2.3 Bus2=236675640.1.2.3 switch=y r1=0.001 x1=0.001 r0=0.001 x0=0.001 Length=0.001 units=km
New Line.5464176:PME5165-1 phases=3 Bus1=238408270.1.2.3 Bus2=238408234.1.2.3 switch=y r1=0.001 x1=0.001 r0=0.001 x0=0.001 Length=0.001 units=km
New Line.5457207:PMC7207-1 phases=3 Bus1=41609181.1.2.3 Bus2=41609196.1.2.3 switch=y r1=0.001 x1=0.001 r0=0.001 x0=0.001 Length=0.001 units=km
New Line.5647576:J576-1 phases=2 Bus1=182330942.1.2 Bus2=182330943.1.2 switch=y r1=0.001 x1=0.001 r0=0.001 x0=0.001 Length=0.001 units=km
New Line.5637005:P5637005-1 phases=3 Bus1=238408793.1.2.3 Bus2=238408794.1.2.3 switch=y r1=0.001 x1=0.001 r0=0.001 x0=0.001 Length=0.001 units=km
New Line.5552211:J211-3 phases=3 Bus1=164268662.1.2.3 Bus2=164268663.1.2.3 switch=y r1=0.001 x1=0.001 r0=0.001 x0=0.001 Length=0.001 units=km
New Line.5554989:P5554989-T phases=3 Bus1=151771502.1.2.3 Bus2=151771510.1.2.3 switch=y r1=0.001 x1=0.001 r0=0.001 x0=0.001 Length=0.001 units=km
New Line.5554989:P5554989-B phases=3 Bus1=151771502.1.2.3 Bus2=151771519.1.2.3 switch=y r1=0.001 x1=0.001 r0=0.001 x0=0.001 Length=0.001 units=km
New Line.5644911:P5644911-1 phases=1 Bus1=165767110.2 Bus2=165767111.2 switch=y r1=0.001 x1=0.001 r0=0.001 x0=0.001 Length=0.001 units=km
New Line.5645454:P5645454-2 phases=1 Bus1=170048011.2 Bus2=170048003.2 switch=y r1=0.001 x1=0.001 r0=0.001 x0=0.001 Length=0.001 units=km
New Line.5645455:P5645455-2 phases=1 Bus1=170048091.2 Bus2=170048083.2 switch=y r1=0.001 x1=0.001 r0=0.001 x0=0.001 Length=0.001 units=km
New Line.5534117:GS6680-3 phases=3 Bus1=108039386.1.2.3 Bus2=108039351.1.2.3 switch=y r1=0.001 x1=0.001 r0=0.001 x0=0.001 Length=0.001 units=km
New Line.CAB_4774462E:4774462E phases=3 Bus1=161005524.1.2.3 Bus2=146528520.1.2.3 switch=y r1=0.001 x1=0.001 r0=0.001 x0=0.001 Length=0.001 units=km
New Line.5534117:GS6680-2 phases=3 Bus1=108039345.1.2.3 Bus2=108039378.1.2.3 switch=y r1=0.001 x1=0.001 r0=0.001 x0=0.001 Length=0.001 units=km
New Line.5534117:GS6680-4 phases=3 Bus1=108039357.1.2.3 Bus2=108039394.1.2.3 switch=y r1=0.001 x1=0.001 r0=0.001 x0=0.001 Length=0.001 units=km
New Line.5534117:GS6680-1 phases=3 Bus1=108039344.1.2.3 Bus2=108039370.1.2.3 switch=y r1=0.001 x1=0.001 r0=0.001 x0=0.001 Length=0.001 units=km
New Line.5534117:GS6680-5 phases=3 Bus1=108039363.1.2.3 Bus2=108039402.1.2.3 switch=y r1=0.001 x1=0.001 r0=0.001 x0=0.001 Length=0.001 units=km
New Line.5620997:P5620997-1 phases=1 Bus1=170272404.3 Bus2=170272405.3 switch=y r1=0.001 x1=0.001 r0=0.001 x0=0.001 Length=0.001 units=km
New Line.5649795:P5649795-1 phases=1 Bus1=170645702.3 Bus2=170645701.3 switch=y r1=0.001 x1=0.001 r0=0.001 x0=0.001 Length=0.001 units=km
New Line.5653925:P5653925-1 phases=1 Bus1=176717441.3 Bus2=176717442.3 switch=y r1=0.001 x1=0.001 r0=0.001 x0=0.001 Length=0.001 units=km
New Line.5643811:P5643811-2 phases=1 Bus1=180270907.1 Bus2=180270915.1 switch=y r1=0.001 x1=0.001 r0=0.001 x0=0.001 Length=0.001 units=km
New Line.5653930:P5653930-1 phases=1 Bus1=180271176.3 Bus2=180271177.3 switch=y r1=0.001 x1=0.001 r0=0.001 x0=0.001 Length=0.001 units=km
New Line.5657183:P5657183-1 phases=1 Bus1=185861614.3 Bus2=185861615.3 switch=y r1=0.001 x1=0.001 r0=0.001 x0=0.001 Length=0.001 units=km
New Line.5706881:P5706881-1 phases=3 Bus1=193193178.1.2.3 Bus2=193193179.1.2.3 switch=y r1=0.001 x1=0.001 r0=0.001 x0=0.001 Length=0.001 units=km
New Line.5596200:B5596200-1 phases=1 Bus1=104869765.3 Bus2=104869766.3 switch=y r1=0.001 x1=0.001 r0=0.001 x0=0.001 Length=0.001 units=km
New Line.5614734:P5614734-1 phases=1 Bus1=165689504.1 Bus2=165689505.1 switch=y r1=0.001 x1=0.001 r0=0.001 x0=0.001 Length=0.001 units=km
New Line.5644911:P5644911-2 phases=1 Bus1=165767111.2 Bus2=165767119.2 switch=y r1=0.001 x1=0.001 r0=0.001 x0=0.001 Length=0.001 units=km
New Line.5643809:P5643809-1 phases=1 Bus1=169988121.1 Bus2=169988122.1 switch=y r1=0.001 x1=0.001 r0=0.001 x0=0.001 Length=0.001 units=km
New Line.4774462E:146528518 phases=3 Bus1=146528520.1.2.3 Bus2=146528521.1.2.3 switch=y r1=0.001 x1=0.001 r0=0.001 x0=0.001 Length=0.001 units=km
New Line.4237355E:41597878 phases=3 Bus1=41597880.1.2.3 Bus2=41597881.1.2.3 switch=y r1=0.001 x1=0.001 r0=0.001 x0=0.001 Length=0.001 units=km
New Line.4328755E:108930201 phases=3 Bus1=108930203.1.2.3 Bus2=108930204.1.2.3 switch=y r1=0.001 x1=0.001 r0=0.001 x0=0.001 Length=0.001 units=km
New Line.4328756E:41609911 phases=3 Bus1=41609913.1.2.3 Bus2=41609914.1.2.3 switch=y r1=0.001 x1=0.001 r0=0.001 x0=0.001 Length=0.001 units=km
New Line.4623101E:44323468 phases=2 Bus1=44323470.2.3 Bus2=44323471.2.3 switch=y r1=0.001 x1=0.001 r0=0.001 x0=0.001 Length=0.001 units=km
New Line.4328759E:107654580 phases=3 Bus1=107654582.1.2.3 Bus2=107654583.1.2.3 switch=y r1=0.001 x1=0.001 r0=0.001 x0=0.001 Length=0.001 units=km
New Line.4328760E:107654623 phases=3 Bus1=107654625.1.2.3 Bus2=107654626.1.2.3 switch=y r1=0.001 x1=0.001 r0=0.001 x0=0.001 Length=0.001 units=km
New Line.477461E:477461EPH phases=3 Bus1=170225560.1.2.3 Bus2=170225559.1.2.3 switch=y r1=0.001 x1=0.001 r0=0.001 x0=0.001 Length=0.001 units=km
New Line.1868706E:1868706E phases=3 Bus1=171180979.1.2.3 Bus2=171180974.1.2.3 switch=y r1=0.001 x1=0.001 r0=0.001 x0=0.001 Length=0.001 units=km
New Line.4018985E:4018985E phases=3 Bus1=41595981.1.2.3 Bus2=41595982.1.2.3 switch=y r1=0.001 x1=0.001 r0=0.001 x0=0.001 Length=0.001 units=km
New Line.4309208E:208E phases=3 Bus1=148128135.1.2.3 Bus2=148128136.1.2.3 switch=y r1=0.001 x1=0.001 r0=0.001 x0=0.001 Length=0.001 units=km
New Line.4328748E:748E phases=3 Bus1=41596044.1.2.3 Bus2=41596045.1.2.3 switch=y r1=0.001 x1=0.001 r0=0.001 x0=0.001 Length=0.001 units=km
New Line.5629671:PME7228-1 phases=3 Bus1=164624587.1.2.3 Bus2=164624552.1.2.3 switch=y r1=0.001 x1=0.001 r0=0.001 x0=0.001 Length=0.001 units=km
New Line.5594787:GS6664-2 phases=3 Bus1=110467392.1.2.3 Bus2=110467411.1.2.3 switch=y r1=0.001 x1=0.001 r0=0.001 x0=0.001 Length=0.001 units=km
New Line.5534111:J111A-2 phases=3 Bus1=110521240.1.2.3 Bus2=110521239.1.2.3 switch=y r1=0.001 x1=0.001 r0=0.001 x0=0.001 Length=0.001 units=km
New Line.5629647:GS7240-2 phases=3 Bus1=236675634.1.2.3 Bus2=236675657.1.2.3 switch=y r1=0.001 x1=0.001 r0=0.001 x0=0.001 Length=0.001 units=km
New Line.5464176:PME5165-2 phases=3 Bus1=238408235.1.2.3 Bus2=238408261.1.2.3 switch=y r1=0.001 x1=0.001 r0=0.001 x0=0.001 Length=0.001 units=km
New Line.5401000:J000-3 phases=3 Bus1=186588136.1.2.3 Bus2=186588135.1.2.3 switch=y r1=0.001 x1=0.001 r0=0.001 x0=0.001 Length=0.001 units=km
New Line.5706883:J883-2 phases=3 Bus1=193193027.1.2.3 Bus2=193193026.1.2.3 switch=y r1=0.001 x1=0.001 r0=0.001 x0=0.001 Length=0.001 units=km
New Line.4328770E:RCS6089 phases=3 Bus1=89720930.1.2.3 Bus2=89720931.1.2.3 switch=y r1=0.001 x1=0.001 r0=0.001 x0=0.001 Length=0.001 units=km enabled=false
New Line.5555002:P5555002-2 phases=3 Bus1=95358932.1.2.3 Bus2=95358924.1.2.3 switch=y r1=0.001 x1=0.001 r0=0.001 x0=0.001 Length=0.001 units=km
New Line.170225641$170225649 phases=3 Bus1=170225628.1.2.3 Bus2=170225622.1.2.3 switch=y r1=0.001 x1=0.001 r0=0.001 x0=0.001 Length=0.001 units=km
New Line.170225633$170225641 phases=3 Bus1=170225622.1.2.3 Bus2=170225621.1.2.3 switch=y r1=0.001 x1=0.001 r0=0.001 x0=0.001 Length=0.001 units=km
New Line.170225737$170225745 phases=3 Bus1=170225725.1.2.3 Bus2=170225726.1.2.3 switch=y r1=0.001 x1=0.001 r0=0.001 x0=0.001 Length=0.001 units=km
New Line.170225745$170225753 phases=3 Bus1=170225726.1.2.3 Bus2=170225732.1.2.3 switch=y r1=0.001 x1=0.001 r0=0.001 x0=0.001 Length=0.001 units=km
New Line.108039376$108039384 phases=3 Bus1=108039351.1.2.3 Bus2=108039345.1.2.3 switch=y r1=0.001 x1=0.001 r0=0.001 x0=0.001 Length=0.001 units=km
New Line.108039384$108039392 phases=3 Bus1=108039351.1.2.3 Bus2=108039357.1.2.3 switch=y r1=0.001 x1=0.001 r0=0.001 x0=0.001 Length=0.001 units=km
New Line.GS6680-1$108039376 phases=3 Bus1=108039345.1.2.3 Bus2=108039344.1.2.3 switch=y r1=0.001 x1=0.001 r0=0.001 x0=0.001 Length=0.001 units=km
New Line.108039392$108039400 phases=3 Bus1=108039357.1.2.3 Bus2=108039363.1.2.3 switch=y r1=0.001 x1=0.001 r0=0.001 x0=0.001 Length=0.001 units=km
New Line.108039583$108039575 phases=3 Bus1=108039557.1.2.3 Bus2=108039558.1.2.3 switch=y r1=0.001 x1=0.001 r0=0.001 x0=0.001 Length=0.001 units=km
New Line.108039575$108039591 phases=3 Bus1=108039558.1.2.3 Bus2=108039564.1.2.3 switch=y r1=0.001 x1=0.001 r0=0.001 x0=0.001 Length=0.001 units=km
New Line.108039591$108039599 phases=3 Bus1=108039564.1.2.3 Bus2=108039570.1.2.3 switch=y r1=0.001 x1=0.001 r0=0.001 x0=0.001 Length=0.001 units=km
New Line.ND41609175$41609202 phases=3 Bus1=41609188.1.2.3 Bus2=41609175.1.2.3 switch=y r1=0.001 x1=0.001 r0=0.001 x0=0.001 Length=0.001 units=km
New Line.41609193$ND41609175 phases=3 Bus1=41609175.1.2.3 Bus2=41609181.1.2.3 switch=y r1=0.001 x1=0.001 r0=0.001 x0=0.001 Length=0.001 units=km
New Line.ND108039732$108039759 phases=3 Bus1=108039745.1.2.3 Bus2=108039732.1.2.3 switch=y r1=0.001 x1=0.001 r0=0.001 x0=0.001 Length=0.001 units=km
New Line.110467417$GS6664-2 phases=3 Bus1=110467391.1.2.3 Bus2=110467392.1.2.3 switch=y r1=0.001 x1=0.001 r0=0.001 x0=0.001 Length=0.001 units=km
New Line.110521212$110521236 phases=3 Bus1=110521216.1.2.3 Bus2=110521240.1.2.3 switch=y r1=0.001 x1=0.001 r0=0.001 x0=0.001 Length=0.001 units=km
New Line.176964948 phases=1 Bus1=176964950.3 Bus2=176964951.3 switch=y r1=0.001 x1=0.001 r0=0.001 x0=0.001 Length=0.001 units=km
New Line.186588132$186588140 phases=3 Bus1=186588144.1.2.3 Bus2=186588136.1.2.3 switch=y r1=0.001 x1=0.001 r0=0.001 x0=0.001 Length=0.001 units=km
New Line.188357938 phases=1 Bus1=188357940.3 Bus2=188357941.3 switch=y r1=0.001 x1=0.001 r0=0.001 x0=0.001 Length=0.001 units=km
New Line.188357982 phases=1 Bus1=188357984.1 Bus2=188357985.1 switch=y r1=0.001 x1=0.001 r0=0.001 x0=0.001 Length=0.001 units=km
New Line.193193007$193193023 phases=3 Bus1=193193011.1.2.3 Bus2=193193027.1.2.3 switch=y r1=0.001 x1=0.001 r0=0.001 x0=0.001 Length=0.001 units=km
New Line.236186696 phases=1 Bus1=236186698.2 Bus2=236186699.2 switch=y r1=0.001 x1=0.001 r0=0.001 x0=0.001 Length=0.001 units=km
New Line.165271064 phases=1 Bus1=165271067.1 Bus2=165271066.1 switch=y r1=0.001 x1=0.001 r0=0.001 x0=0.001 Length=0.001 units=km
New Line.168050091 phases=3 Bus1=168050093.1.2.3 Bus2=168050094.1.2.3 switch=y r1=0.001 x1=0.001 r0=0.001 x0=0.001 Length=0.001 units=km
New Line.236675654$236675663 phases=3 Bus1=236675640.1.2.3 Bus2=236675634.1.2.3 switch=y r1=0.001 x1=0.001 r0=0.001 x0=0.001 Length=0.001 units=km
New Line.238408267$PME5165-3 phases=3 Bus1=238408234.1.2.3 Bus2=238408235.1.2.3 switch=y r1=0.001 x1=0.001 r0=0.001 x0=0.001 Length=0.001 units=km
New Line.108039750$ND108039732 phases=3 Bus1=108039732.1.2.3 Bus2=108039738.1.2.3 switch=y r1=0.001 x1=0.001 r0=0.001 x0=0.001 Length=0.001 units=km
New Line.110521236$110521220 phases=3 Bus1=110521240.1.2.3 Bus2=110521224.1.2.3 switch=y r1=0.001 x1=0.001 r0=0.001 x0=0.001 Length=0.001 units=km
New Line.164535785$GS4760-5 phases=3 Bus1=164535746.1.2.3 Bus2=164535752.1.2.3 switch=y r1=0.001 x1=0.001 r0=0.001 x0=0.001 Length=0.001 units=km
New Line.164535776$164535785 phases=3 Bus1=164535746.1.2.3 Bus2=165387700.1.2.3 switch=y r1=0.001 x1=0.001 r0=0.001 x0=0.001 Length=0.001 units=km
New Line.236675645$236675654 phases=3 Bus1=236675634.1.2.3 Bus2=236675633.1.2.3 switch=y r1=0.001 x1=0.001 r0=0.001 x0=0.001 Length=0.001 units=km
New Line.172845877 phases=1 Bus1=172845880.1 Bus2=172845879.1 switch=y r1=0.001 x1=0.001 r0=0.001 x0=0.001 Length=0.001 units=km
New Line.174036386 phases=1 Bus1=174036388.2 Bus2=174036389.2 switch=y r1=0.001 x1=0.001 r0=0.001 x0=0.001 Length=0.001 units=km
New Line.174129759 phases=1 Bus1=174129762.1 Bus2=174129761.1 switch=y r1=0.001 x1=0.001 r0=0.001 x0=0.001 Length=0.001 units=km
New Line.182330939$182330955 phases=3 Bus1=182330943.1.2.3 Bus2=182330959.1.2.3 switch=y r1=0.001 x1=0.001 r0=0.001 x0=0.001 Length=0.001 units=km
New Line.186588148$186588132 phases=3 Bus1=186588136.1.2.3 Bus2=186588152.1.2.3 switch=y r1=0.001 x1=0.001 r0=0.001 x0=0.001 Length=0.001 units=km
New Line.193193023$193193015 phases=3 Bus1=193193027.1.2.3 Bus2=193193019.1.2.3 switch=y r1=0.001 x1=0.001 r0=0.001 x0=0.001 Length=0.001 units=km
New Line.GS6664-3$110467433 phases=3 Bus1=110467398.1.2.3 Bus2=110467404.1.2.3 switch=y r1=0.001 x1=0.001 r0=0.001 x0=0.001 Length=0.001 units=km
New Line.110521220$110521228 phases=3 Bus1=110521224.1.2.3 Bus2=110521232.1.2.3 switch=y r1=0.001 x1=0.001 r0=0.001 x0=0.001 Length=0.001 units=km
New Line.164535767$164535776 phases=3 Bus1=165387700.1.2.3 Bus2=165387694.1.2.3 switch=y r1=0.001 x1=0.001 r0=0.001 x0=0.001 Length=0.001 units=km
New Line.GS4760-1$164535767 phases=3 Bus1=165387694.1.2.3 Bus2=165387693.1.2.3 switch=y r1=0.001 x1=0.001 r0=0.001 x0=0.001 Length=0.001 units=km
New Line.170048211 phases=1 Bus1=170048214.2 Bus2=170048213.2 switch=y r1=0.001 x1=0.001 r0=0.001 x0=0.001 Length=0.001 units=km
New Line.110521891$110521915 phases=3 Bus1=110521895.1.2.3 Bus2=110521919.1.2.3 switch=y r1=0.001 x1=0.001 r0=0.001 x0=0.001 Length=0.001 units=km
New Line.134144579 phases=3 Bus1=134144581.1.2.3 Bus2=134144582.1.2.3 switch=y r1=0.001 x1=0.001 r0=0.001 x0=0.001 Length=0.001 units=km
New Line.193193719 phases=3 Bus1=193193722.1.2.3 Bus2=193193721.1.2.3 switch=y r1=0.001 x1=0.001 r0=0.001 x0=0.001 Length=0.001 units=km
New Line.164268667$164268659 phases=3 Bus1=164268663.1.2.3 Bus2=164268671.1.2.3 switch=y r1=0.001 x1=0.001 r0=0.001 x0=0.001 Length=0.001 units=km
New Line.164531318 phases=1 Bus1=164531320.2 Bus2=164531321.2 switch=y r1=0.001 x1=0.001 r0=0.001 x0=0.001 Length=0.001 units=km
New Line.165767451 phases=1 Bus1=165767453.2 Bus2=165767454.2 switch=y r1=0.001 x1=0.001 r0=0.001 x0=0.001 Length=0.001 units=km
New Line.169623621 phases=1 Bus1=169623623.1 Bus2=169623624.1 switch=y r1=0.001 x1=0.001 r0=0.001 x0=0.001 Length=0.001 units=km
New Line.173570031 phases=2 Bus1=173570033.2.3 Bus2=173570034.2.3 switch=y r1=0.001 x1=0.001 r0=0.001 x0=0.001 Length=0.001 units=km
New Line.180271091 phases=1 Bus1=180271094.1 Bus2=180271093.1 switch=y r1=0.001 x1=0.001 r0=0.001 x0=0.001 Length=0.001 units=km
New Line.182330955$182330947 phases=3 Bus1=182330959.1.2.3 Bus2=182330951.1.2.3 switch=y r1=0.001 x1=0.001 r0=0.001 x0=0.001 Length=0.001 units=km
New Line.186588124$186588148 phases=3 Bus1=186588152.1.2.3 Bus2=186588128.1.2.3 switch=y r1=0.001 x1=0.001 r0=0.001 x0=0.001 Length=0.001 units=km
New Line.41609708 phases=1 Bus1=41609710.1 Bus2=41609711.1 switch=y r1=0.001 x1=0.001 r0=0.001 x0=0.001 Length=0.001 units=km
New Line.164268651$164268667 phases=3 Bus1=164268671.1.2.3 Bus2=164268655.1.2.3 switch=y r1=0.001 x1=0.001 r0=0.001 x0=0.001 Length=0.001 units=km
New Line.110521915$110521899 phases=3 Bus1=110521919.1.2.3 Bus2=110521903.1.2.3 switch=y r1=0.001 x1=0.001 r0=0.001 x0=0.001 Length=0.001 units=km
New Line.110521899$110521907 phases=3 Bus1=110521903.1.2.3 Bus2=110521911.1.2.3 switch=y r1=0.001 x1=0.001 r0=0.001 x0=0.001 Length=0.001 units=km
New Line.165895075$165895099 phases=3 Bus1=165895079.1.2.3 Bus2=165895103.1.2.3 switch=y r1=0.001 x1=0.001 r0=0.001 x0=0.001 Length=0.001 units=km
New Line.170047637$170047653 phases=3 Bus1=170047641.1.2.3 Bus2=170047657.1.2.3 switch=y r1=0.001 x1=0.001 r0=0.001 x0=0.001 Length=0.001 units=km
New Line.GS7239-3$183609074 phases=3 Bus1=183609045.1.2.3 Bus2=183609039.1.2.3 switch=y r1=0.001 x1=0.001 r0=0.001 x0=0.001 Length=0.001 units=km
New Line.193193744 phases=3 Bus1=193193746.1.2.3 Bus2=193193747.1.2.3 switch=y r1=0.001 x1=0.001 r0=0.001 x0=0.001 Length=0.001 units=km
New Line.165895099$165895083 phases=3 Bus1=165895103.1.2.3 Bus2=165895087.1.2.3 switch=y r1=0.001 x1=0.001 r0=0.001 x0=0.001 Length=0.001 units=km
New Line.170047653$170047645 phases=3 Bus1=170047657.1.2.3 Bus2=170047649.1.2.3 switch=y r1=0.001 x1=0.001 r0=0.001 x0=0.001 Length=0.001 units=km
New Line.GS7239-2$GS7239-3 phases=3 Bus1=183609039.1.2.3 Bus2=183609033.1.2.3 switch=y r1=0.001 x1=0.001 r0=0.001 x0=0.001 Length=0.001 units=km
New Line.110522040$110522064 phases=3 Bus1=110522044.1.2.3 Bus2=110522068.1.2.3 switch=y r1=0.001 x1=0.001 r0=0.001 x0=0.001 Length=0.001 units=km
New Line.165895083$165895091 phases=3 Bus1=165895087.1.2.3 Bus2=165895095.1.2.3 switch=y r1=0.001 x1=0.001 r0=0.001 x0=0.001 Length=0.001 units=km
New Line.183609058$GS7239-2 phases=3 Bus1=183609033.1.2.3 Bus2=183609032.1.2.3 switch=y r1=0.001 x1=0.001 r0=0.001 x0=0.001 Length=0.001 units=km
New Line.199778543 phases=3 Bus1=199778545.1.2.3 Bus2=199778546.1.2.3 switch=y r1=0.001 x1=0.001 r0=0.001 x0=0.001 Length=0.001 units=km
New Line.201697768 phases=3 Bus1=201697770.1.2.3 Bus2=201697771.1.2.3 switch=y r1=0.001 x1=0.001 r0=0.001 x0=0.001 Length=0.001 units=km
New Line.216979534 phases=3 Bus1=216979536.1.2.3 Bus2=216979537.1.2.3 switch=y r1=0.001 x1=0.001 r0=0.001 x0=0.001 Length=0.001 units=km
New Line.110521593$GS6665-2 phases=3 Bus1=110521581.1.2.3 Bus2=110521582.1.2.3 switch=y r1=0.001 x1=0.001 r0=0.001 x0=0.001 Length=0.001 units=km
New Line.110522064$110522048 phases=3 Bus1=110522068.1.2.3 Bus2=110522052.1.2.3 switch=y r1=0.001 x1=0.001 r0=0.001 x0=0.001 Length=0.001 units=km
New Line.110522253$110522277 phases=3 Bus1=110522257.1.2.3 Bus2=110522281.1.2.3 switch=y r1=0.001 x1=0.001 r0=0.001 x0=0.001 Length=0.001 units=km
New Line.170048261 phases=1 Bus1=170048264.2 Bus2=170048263.2 switch=y r1=0.001 x1=0.001 r0=0.001 x0=0.001 Length=0.001 units=km
New Line.193192897$193192913 phases=3 Bus1=193192901.1.2.3 Bus2=193192917.1.2.3 switch=y r1=0.001 x1=0.001 r0=0.001 x0=0.001 Length=0.001 units=km
New Line.206897873 phases=3 Bus1=206897876.1.2.3 Bus2=206897875.1.2.3 switch=y r1=0.001 x1=0.001 r0=0.001 x0=0.001 Length=0.001 units=km
New Line.165271091 phases=1 Bus1=165271093.1 Bus2=165271094.1 switch=y r1=0.001 x1=0.001 r0=0.001 x0=0.001 Length=0.001 units=km
New Line.167232917 phases=1 Bus1=167232920.2 Bus2=167232919.2 switch=y r1=0.001 x1=0.001 r0=0.001 x0=0.001 Length=0.001 units=km
New Line.172845904 phases=1 Bus1=172845906.1 Bus2=172845907.1 switch=y r1=0.001 x1=0.001 r0=0.001 x0=0.001 Length=0.001 units=km
New Line.173586776 phases=1 Bus1=173586778.1 Bus2=173586779.1 switch=y r1=0.001 x1=0.001 r0=0.001 x0=0.001 Length=0.001 units=km
New Line.174129727 phases=1 Bus1=174129729.1 Bus2=174129730.1 switch=y r1=0.001 x1=0.001 r0=0.001 x0=0.001 Length=0.001 units=km
New Line.176717908 phases=1 Bus1=176717911.3 Bus2=176717910.3 switch=y r1=0.001 x1=0.001 r0=0.001 x0=0.001 Length=0.001 units=km
New Line.176964923 phases=1 Bus1=176964926.3 Bus2=176964925.3 switch=y r1=0.001 x1=0.001 r0=0.001 x0=0.001 Length=0.001 units=km
New Line.176964973 phases=1 Bus1=176964976.3 Bus2=176964975.3 switch=y r1=0.001 x1=0.001 r0=0.001 x0=0.001 Length=0.001 units=km
New Line.185861998 phases=1 Bus1=185862001.3 Bus2=185862000.3 switch=y r1=0.001 x1=0.001 r0=0.001 x0=0.001 Length=0.001 units=km
New Line.164531204 phases=1 Bus1=164531206.1 Bus2=164531207.1 switch=y r1=0.001 x1=0.001 r0=0.001 x0=0.001 Length=0.001 units=km
New Line.164646287 phases=1 Bus1=164646289.1 Bus2=164646290.1 switch=y r1=0.001 x1=0.001 r0=0.001 x0=0.001 Length=0.001 units=km
New Line.164646435 phases=1 Bus1=164646437.1 Bus2=164646438.1 switch=y r1=0.001 x1=0.001 r0=0.001 x0=0.001 Length=0.001 units=km
New Line.169988390 phases=1 Bus1=169988393.1 Bus2=169988392.1 switch=y r1=0.001 x1=0.001 r0=0.001 x0=0.001 Length=0.001 units=km
New Line.173587312 phases=1 Bus1=173587315.3 Bus2=173587314.3 switch=y r1=0.001 x1=0.001 r0=0.001 x0=0.001 Length=0.001 units=km
New Line.180271116 phases=1 Bus1=180271118.1 Bus2=180271119.1 switch=y r1=0.001 x1=0.001 r0=0.001 x0=0.001 Length=0.001 units=km
New Line.190416355 phases=1 Bus1=190416357.2 Bus2=190416358.2 switch=y r1=0.001 x1=0.001 r0=0.001 x0=0.001 Length=0.001 units=km
New Line.190998319 phases=1 Bus1=190998322.1 Bus2=190998321.1 switch=y r1=0.001 x1=0.001 r0=0.001 x0=0.001 Length=0.001 units=km
New Line.193193602 phases=3 Bus1=193193605.1.2.3 Bus2=193193604.1.2.3 switch=y r1=0.001 x1=0.001 r0=0.001 x0=0.001 Length=0.001 units=km
New Line.100141812 phases=3 Bus1=100141814.1.2.3 Bus2=100141815.1.2.3 switch=y r1=0.001 x1=0.001 r0=0.001 x0=0.001 Length=0.001 units=km
New Line.164771894 phases=1 Bus1=164771897.2 Bus2=164771896.2 switch=y r1=0.001 x1=0.001 r0=0.001 x0=0.001 Length=0.001 units=km
New Line.164771977 phases=1 Bus1=164771980.2 Bus2=164771979.2 switch=y r1=0.001 x1=0.001 r0=0.001 x0=0.001 Length=0.001 units=km
New Line.165690232 phases=1 Bus1=165690235.3 Bus2=165690234.3 switch=y r1=0.001 x1=0.001 r0=0.001 x0=0.001 Length=0.001 units=km
New Line.167232958 phases=1 Bus1=167232960.2 Bus2=167232961.2 switch=y r1=0.001 x1=0.001 r0=0.001 x0=0.001 Length=0.001 units=km
New Line.GS6665-2$110521609 phases=3 Bus1=110521582.1.2.3 Bus2=110521588.1.2.3 switch=y r1=0.001 x1=0.001 r0=0.001 x0=0.001 Length=0.001 units=km
New Line.110522048$110522056 phases=3 Bus1=110522052.1.2.3 Bus2=110522060.1.2.3 switch=y r1=0.001 x1=0.001 r0=0.001 x0=0.001 Length=0.001 units=km
...

! Loads
New Load.4328759E_0 Bus1=-999999107654583.3.0 phases=1 kV=0.069282 kW=0 kvar=0 model=1
New Load.4328759E_1 Bus1=-999999107654583.1.0 phases=1 kV=0.069282 kW=0 kvar=0 model=1
New Load.5639742 Bus1=-999999170422701.1.0 phases=1 kV=0.069282 kW=0 kvar=0 model=1
New Load.5629675 Bus1=-999999164624952.3.0 phases=1 kV=0.069282 kW=0 kvar=0 model=1
New Load.5629647 Bus1=-999999180842435.2.0 phases=1 kV=0.138564 kW=0 kvar=0 model=1
New Load.5657080 Bus1=-999999182331057.2.0 phases=1 kV=0.069282 kW=0 kvar=0 model=1
New Load.5534111 Bus1=-999999110521231.1.0 phases=1 kV=0.069282 kW=0 kvar=0 model=1
New Load.5607991 Bus1=-999999110654549.1.0 phases=1 kV=0.159926 kW=0 kvar=0 model=1
New Load.5558242_0 Bus1=-999999100141730.1.0 phases=1 kV=0.159926 kW=0 kvar=0 model=1
New Load.5558242_1 Bus1=-999999100141730.2.0 phases=1 kV=0.159926 kW=0 kvar=0 model=1
New Load.5558242_2 Bus1=-999999100141730.3.0 phases=1 kV=0.159926 kW=0 kvar=0 model=1
New Load.5639998 Bus1=-999999182330418.2.0 phases=1 kV=0.069282 kW=0 kvar=0 model=1
New Load.5639997 Bus1=-999999180735208.1.0 phases=1 kV=0.069282 kW=0 kvar=0 model=1
New Load.5643793 Bus1=-999999169623248.1.0 phases=1 kV=0.069282 kW=0 kvar=0 model=1
New Load.5640000 Bus1=-999999182330199.2.0 phases=1 kV=0.069282 kW=0 kvar=0 model=1
New Load.5657082 Bus1=-999999182331125.2.0 phases=1 kV=0.069282 kW=0 kvar=0 model=1
...